/*--------------------------------*- C++ -*----------------------------------*\
| =========                 |                                                 |
| \\      /  F ield         | OpenFOAM: The Open Source CFD Toolbox           |
|  \\    /   O peration     | Version:  v1912                                 |
|   \\  /    A nd           | Web:      www.openfoam.com                      |
|    \\/     M anipulation  |                                                 |
\*---------------------------------------------------------------------------*/
FoamFile
{
    version     2.0;
    format      ascii;
    class       dictionary;
    location    "system";
    object      fvSolution;
}
// * * * * * * * * * * * * * * * * * * * * * * * * * * * * * * * * * * * * * //

solvers
{
    p
    {
        solver          PCG;
        preconditioner  DIC;
        tolerance       1e-6; // 1e-8
        relTol          0.01; // 0.001
        maxIter         1000;
    }

    pFinal
    {
        solver          PCG;
        preconditioner  DIC;
        tolerance       1e-5; // 1e-8
        relTol          0;
        maxIter         1000;
    }

    "(U|UFinal|Phi)"
    {
        solver          smoothSolver;
        smoother        GaussSeidel;
        tolerance       1e-6; //1e-8
        relTol          0;
        nSweeps         1;
    }
}

PISO
{
    nCorrectors     2;
    nNonOrthogonalCorrectors 0;
    pRefCell        0;
    pRefValue       0;
}

potentialFlow
{
    nNonOrthogonalCorrectors 20;
}


// ************************************************************************* //
